outputs/tables/line_flows.csv
from,to,P_ij,Q_ij,P_ji,Q_ji,P_loss,Q_loss
4,5,0.4093734073179588,0.2289310126866878,-0.40679826711597694,-0.3868723216994196,0.0025751402019818515,-0.1579413090127318
4,6,0.307036630301124,0.010300016986612164,-0.3053725622755756,-0.16543361664465317,0.0016640680255484153,-0.155133599658041
5,7,-0.8432018224488168,-0.11312740088980502,0.8662015450564722,-0.083808255213881,0.02299972260765537,-0.19693565610368602
6,9,-0.5946275155145414,-0.13456625980330975,0.6081660103144256,-0.18074843071533037,0.013538494799884226,-0.31531469051864014
7,8,0.7637988248423365,-0.007973303655810185,-0.7590459867942738,-0.10704177647399103,0.004752838048062702,-0.11501508012980122
8,9,-0.2409541976945519,-0.24295814302319046,0.2418341631649999,0.03119499173811509,0.0008799654704479964,-0.21176315128507536
1,4,0.7164101221284641,0.27045892288942164,-0.7164101221284641,-0.239230973608193,0.0,0.03122794928122863
2,7,1.6300000277667277,0.0665362070535245,-1.630000027766728,0.09178188678160946,-2.220446049250313e-16,0.15831809383513396
3,9,0.8500000103379004,-0.10859733267893823,-0.8500000103379003,0.14955351888888893,1.1102230246251565e-16,0.0409561862099507
